Circuit: * C:\Program Files\LTC\LTspiceIV\Mes Projets\Traceur de courbe\Traceur de courbe pour pentode.asc

.step vg=0
.step vg=-5
.step vg=-10
.step vg=-15
.step vg=-20
.step vg=-25
.step vg=-30
.step vg=-35
.step vg=-40

Date: Tue Dec 03 17:57:23 2013
Total elapsed time: 0.148 seconds.

tnom = 27
temp = 27
method = trap
totiter = 1957
traniter = 0
tranpoints = 0
accept = 0
rejected = 0
matrix size = 62
fillins = 0
solver = Normal
Thread vector: 121.0/59.9[3] 0.0/0.0[0] 17.7/6.8[3] 1.2/1.4[1]  2592/500
Matrix Compiler1: 2.15 KB object code size  1.7/3.6/[1.1]
Matrix Compiler2: 3.39 KB object code size  1.3/4.7/[1.3]


