Circuit: * C:\Program Files\LTC\LTspiceIV\Mes Projets\Traceur de courbe\Traceur de courbe pour triode petite.asc

.step vg=1
.step vg=0.5
.step vg=0
.step vg=-0.5
.step vg=-1
.step vg=-1.5
.step vg=-2
.step vg=-2.5
.step vg=-3
.step vg=-3.5
.step vg=-4
.step vg=-4.5
.step vg=-5

Date: Fri Jan 03 22:17:44 2014
Total elapsed time: 0.114 seconds.

tnom = 27
temp = 27
method = trap
totiter = 3050
traniter = 0
tranpoints = 0
accept = 0
rejected = 0
matrix size = 12
fillins = 0
solver = Normal
Matrix Compiler1: 482 octets object code size  1.1/0.6/[0.5]
Matrix Compiler2: 776 octets object code size  1.1/0.8/[0.8]


