Circuit: * C:\Program Files\LTC\LTspiceIV\Mes Projets\Traceur de courbe\Traceur de courbe pour pentode petite.asc

.step vg=0
.step vg=-1
.step vg=-2
.step vg=-3
.step vg=-4

Date: Fri Aug 09 09:59:53 2013
Total elapsed time: 0.114 seconds.

tnom = 27
temp = 27
method = trap
totiter = 921
traniter = 0
tranpoints = 0
accept = 0
rejected = 0
matrix size = 42
fillins = 0
solver = Normal
Thread vector: 93.1/24.2[2] 0.0/0.0[0] 12.1/4.9[2] 1.0/1.3[1]  2592/500
Matrix Compiler1: 1.56 KB object code size  1.2/0.9/[0.8]
Matrix Compiler2: off  [0.7]/1.1/0.9


