Circuit: * C:\Program Files\LTC\LTspiceIV\Mes Projets\Traceur de courbe\Traceur de courbe pour triode.asc

.step vg=0
.step vg=-20
.step vg=-40
.step vg=-60
.step vg=-80
.step vg=-100
.step vg=-120
.step vg=-140

Date: Sat May 24 10:35:59 2014
Total elapsed time: 0.086 seconds.

tnom = 27
temp = 27
method = trap
totiter = 672
traniter = 0
tranpoints = 0
accept = 0
rejected = 0
matrix size = 8
fillins = 0
solver = Normal
Matrix Compiler1: 300 octets object code size  1.2/1.1/[1.0]
Matrix Compiler2: 496 octets object code size  1.1/1.1/[1.1]


