Circuit: * C:\Program Files\LTC\LTspiceIV\Mes Projets\Traceur de courbe\Traceur de courbe pour pentode en PP.asc

.step vg1=0
.step vg1=-2
.step vg1=-4
.step vg1=-6
.step vg1=-8
.step vg1=-10
.step vg1=-12
.step vg1=-14
.step vg1=-16
.step vg1=-18
.step vg1=-20

Date: Wed Jul 24 12:28:43 2013
Total elapsed time: 0.238 seconds.

tnom = 27
temp = 27
method = trap
totiter = 4119
traniter = 0
tranpoints = 0
accept = 0
rejected = 0
matrix size = 44
fillins = 0
solver = Normal
Matrix Compiler1: 1.08 KB object code size  1.9/1.8/[1.0]
Matrix Compiler2: 2.58 KB object code size  1.7/2.6/[1.0]


