Circuit: * C:\Program Files\LTC\LTspiceIV\Mes Projets\Traceur de courbe\Traceur de courbe pour triode courant grille.asc

.step va=0
.step va=20
.step va=40
.step va=60
.step va=80
.step va=100
.step va=120
.step va=140
.step va=160
.step va=180
.step va=200
.step va=220
.step va=240
.step va=260
.step va=280
.step va=300

Date: Tue May 22 07:32:31 2012
Total elapsed time: 0.058 seconds.

tnom = 27
temp = 27
method = trap
totiter = 2053
traniter = 0
tranpoints = 0
accept = 0
rejected = 0
matrix size = 20
fillins = 0
solver = Normal
Matrix Compiler1: 666 octets object code size  0.5/0.3/[0.3]
Matrix Compiler2: 1.06 KB object code size  0.3/0.5/[0.1]


