Circuit: * C:\Program Files\LTC\LTspiceIV\Mes Projets\Traceur de courbe\Traceur de courbe pour triode en PP.asc

.step vg1=0
.step vg1=-20
.step vg1=-40
.step vg1=-60
.step vg1=-80
.step vg1=-100
.step vg1=-120
.step vg1=-140

Date: Mon May 20 08:25:13 2013
Total elapsed time: 0.269 seconds.

tnom = 27
temp = 27
method = trap
totiter = 2937
traniter = 0
tranpoints = 0
accept = 0
rejected = 0
matrix size = 20
fillins = 0
solver = Normal
Matrix Compiler1: 504 octets object code size  1.0/0.9/[0.6]
Matrix Compiler2: 1.28 KB object code size  0.9/1.3/[0.5]


