Circuit: * C:\Program Files\LTC\LTspiceIV\Mes Projets\Traceur de courbe\xfmrmeas.asc

R2: both pins shorted together -- ignoring.
.OP point found by inspection.

Date: Wed May 02 19:04:20 2012
Total elapsed time: 2.803 seconds.

tnom = 27
temp = 27
method = modified trap
totiter = 200042
traniter = 200042
tranpoints = 100022
accept = 100021
rejected = 1
matrix size = 13
fillins = 10
solver = Normal
Matrix Compiler1: 1000 octets object code size  1.6/1.4/[0.8]
Matrix Compiler2: 1.05 KB object code size  1.3/1.6/[1.0]


