Circuit: * C:\Program Files\LTC\LTspiceIV\Mes Projets\DA EL360\el360.asc

Direct Newton iteration for .op point succeeded.
Fourier components of V(output)
DC component:0.00179253

Harmonic	Frequency	 Fourier 	Normalized	 Phase  	Normalized
 Number 	  [Hz]   	Component	 Component	[degree]	Phase [deg]
    1   	1.000e+03	3.702e+00	1.000e+00	   -0.41°	    0.00°
    2   	2.000e+03	1.884e-03	5.090e-04	  -73.64°	  -73.24°
    3   	3.000e+03	3.203e-04	8.652e-05	   65.32°	   65.73°
    4   	4.000e+03	2.654e-04	7.170e-05	  -70.47°	  -70.06°
    5   	5.000e+03	2.622e-04	7.085e-05	 -172.48°	 -172.07°
    6   	6.000e+03	9.390e-05	2.537e-05	   92.59°	   93.00°
    7   	7.000e+03	9.832e-05	2.656e-05	 -163.81°	 -163.40°
    8   	8.000e+03	1.522e-04	4.112e-05	   97.87°	   98.27°
    9   	9.000e+03	6.640e-05	1.794e-05	   -3.53°	   -3.12°
Total Harmonic Distortion: 0.052920%



output_power_rms: RMS((v(output))*i(r15))=1.04881 FROM 0 TO 0.01


Date: Tue Sep 02 17:03:08 2014
Total elapsed time: 0.372 seconds.

tnom = 27
temp = 27
method = modified trap
totiter = 2979
traniter = 2954
tranpoints = 1053
accept = 1052
rejected = 1
matrix size = 49
fillins = 29
solver = Normal
Matrix Compiler1: 4.74 KB object code size  3.5/2.3/[0.9]
Matrix Compiler2:     357 opcodes  2.3/[2.0]/2.2


